Version 4
SHEET 1 1284 1268
WIRE 416 -208 320 -208
WIRE 576 -208 416 -208
WIRE 320 -176 320 -208
WIRE 416 -176 416 -208
WIRE 576 -160 576 -208
WIRE 48 80 -304 80
WIRE 1280 80 48 80
WIRE -336 112 -560 112
WIRE -336 128 -336 112
WIRE -32 128 -336 128
WIRE -560 144 -560 112
WIRE 320 160 320 -96
WIRE 864 160 320 160
WIRE -336 176 -336 128
WIRE -304 176 -304 80
WIRE 48 192 48 80
WIRE 80 192 48 192
WIRE 864 192 416 192
WIRE 240 208 208 208
WIRE -32 224 -32 128
WIRE 80 224 -32 224
WIRE 864 224 688 224
WIRE 1280 224 1280 80
WIRE 1280 224 1200 224
WIRE -560 256 -560 224
WIRE 240 256 240 208
WIRE 864 256 240 256
WIRE 576 288 576 -80
WIRE 864 288 576 288
WIRE -320 336 -320 304
WIRE -320 336 -336 336
WIRE -32 336 -320 336
WIRE 64 352 -304 352
WIRE 1280 352 64 352
WIRE -336 384 -336 336
WIRE -304 384 -304 352
WIRE 320 400 320 160
WIRE 864 400 320 400
WIRE 64 432 64 352
WIRE 96 432 64 432
WIRE 416 432 416 192
WIRE 864 432 416 432
WIRE 240 448 224 448
WIRE -32 464 -32 336
WIRE 96 464 -32 464
WIRE 688 464 688 224
WIRE 864 464 688 464
WIRE 1280 464 1280 352
WIRE 1280 464 1200 464
WIRE 240 496 240 448
WIRE 864 496 240 496
WIRE 576 528 576 288
WIRE 864 528 576 528
WIRE -320 544 -320 512
WIRE -320 544 -336 544
WIRE -32 544 -320 544
WIRE 64 560 -304 560
WIRE 1280 560 64 560
WIRE -336 608 -336 544
WIRE -304 608 -304 560
WIRE 320 608 320 400
WIRE 864 608 320 608
WIRE 64 624 64 560
WIRE 96 624 64 624
WIRE 240 640 224 640
WIRE 416 640 416 432
WIRE 864 640 416 640
WIRE -32 656 -32 544
WIRE 96 656 -32 656
WIRE 688 672 688 464
WIRE 864 672 688 672
WIRE 1280 672 1280 560
WIRE 1280 672 1200 672
WIRE 240 704 240 640
WIRE 864 704 240 704
WIRE 576 736 576 528
WIRE 864 736 576 736
WIRE -320 752 -320 736
WIRE -320 752 -336 752
WIRE -32 752 -320 752
WIRE 752 752 64 752
WIRE 64 768 64 752
WIRE 64 768 -304 768
WIRE 752 784 752 752
WIRE 1280 784 752 784
WIRE -336 800 -336 752
WIRE -304 800 -304 768
WIRE 320 816 320 608
WIRE 880 816 320 816
WIRE 64 832 64 768
WIRE 96 832 64 832
WIRE 240 848 224 848
WIRE 416 848 416 640
WIRE 880 848 416 848
WIRE -32 864 -32 752
WIRE 96 864 -32 864
WIRE 688 880 688 672
WIRE 880 880 688 880
WIRE 1280 880 1280 784
WIRE 1280 880 1216 880
WIRE 240 912 240 848
WIRE 880 912 240 912
WIRE 576 944 576 736
WIRE 880 944 576 944
WIRE -320 976 -320 928
WIRE 752 976 -320 976
WIRE 416 1040 416 848
WIRE 688 1136 688 880
WIRE 416 1152 416 1120
WIRE 688 1248 688 1216
FLAG -560 256 0
FLAG 416 -176 0
FLAG 752 976 Z
IOPIN 752 976 Out
FLAG 416 1152 0
FLAG 688 1248 0
SYMBOL AND_model1 -320 240 R90
SYMATTR InstName AnD1
SYMBOL AND_model1 -320 448 R90
SYMATTR InstName AnD2
SYMBOL AND_model1 -320 672 R90
SYMATTR InstName AnD3
SYMBOL AND_model1 -320 864 R90
SYMATTR InstName AnD4
SYMBOL XOR_model1 144 208 R0
SYMATTR InstName X1
SYMBOL XOR_model1 160 448 R0
SYMATTR InstName X2
SYMBOL XOR_model1 160 640 R0
SYMATTR InstName X3
SYMBOL XOR_model1 160 848 R0
SYMATTR InstName X4
SYMBOL voltage -560 128 R0
SYMATTR InstName En
SYMATTR Value 1.8
SYMBOL voltage 320 -80 R180
WINDOW 0 24 96 Left 2
WINDOW 3 24 16 Left 2
WINDOW 123 0 0 Left 0
WINDOW 39 0 0 Left 0
SYMATTR InstName Clock1
SYMATTR Value PULSE(0 1.8 0 1n 1n 50n 100n)
SYMBOL D_Flip_Flop_design_Pr_Clr 1024 224 R0
SYMATTR InstName X5
SYMBOL D_Flip_Flop_design_Pr_Clr 1024 464 R0
SYMATTR InstName X6
SYMBOL D_Flip_Flop_design_Pr_Clr 1024 672 R0
SYMATTR InstName X7
SYMBOL D_Flip_Flop_design_Pr_Clr 1040 880 R0
SYMATTR InstName X8
SYMBOL voltage 416 1024 R0
WINDOW 0 24 96 Left 2
WINDOW 3 24 16 Left 2
WINDOW 123 0 0 Left 0
WINDOW 39 0 0 Left 0
SYMATTR InstName Clock2
SYMATTR Value PULSE(1.8 0 0 1n 1n 50n 100n)
SYMBOL voltage 688 1120 R0
SYMATTR InstName CLR_Bar
SYMATTR Value 1.8
SYMBOL voltage 576 -64 R180
WINDOW 0 24 96 Left 2
WINDOW 3 24 16 Left 2
WINDOW 123 0 0 Left 0
WINDOW 39 0 0 Left 0
SYMATTR InstName Preset
SYMATTR Value 0
TEXT -344 -24 Left 2 !.lib C:\\ENGINEERING\\CommunicationEngineering\\LTSpice_LIBS-20210921T113202Z-001\\LTSpice_LIBS\\tsmc018.lib
TEXT 648 -88 Left 2 !.tran 0 1000n 0 0.1n
