Version 4
SHEET 1 1900 2284
WIRE 912 160 800 160
WIRE 1088 160 912 160
WIRE 800 224 800 160
WIRE 1088 224 1088 160
WIRE 912 272 912 160
WIRE -560 336 -608 336
WIRE -320 336 -480 336
WIRE -32 336 -320 336
WIRE -608 368 -608 336
WIRE 240 368 -288 368
WIRE 1808 368 240 368
WIRE -320 432 -320 336
WIRE -288 432 -288 368
WIRE 1088 496 1088 304
WIRE 1200 496 1088 496
WIRE 240 512 240 368
WIRE 304 512 240 512
WIRE 560 528 432 528
WIRE 800 528 800 304
WIRE 1200 528 800 528
WIRE -32 544 -32 336
WIRE 304 544 -32 544
WIRE 1200 560 1040 560
WIRE 1808 560 1808 368
WIRE 1808 560 1392 560
WIRE 560 592 560 528
WIRE 1200 592 560 592
WIRE 1200 624 1168 624
WIRE -304 720 -304 560
WIRE -304 720 -320 720
WIRE -304 736 -304 720
WIRE 192 736 -304 736
WIRE 240 800 -288 800
WIRE 1808 800 240 800
WIRE -320 896 -320 720
WIRE -288 896 -288 800
WIRE 1088 912 1088 496
WIRE 1216 912 1088 912
WIRE 240 944 240 800
WIRE 320 944 240 944
WIRE 800 944 800 528
WIRE 1216 944 800 944
WIRE 560 960 448 960
WIRE 192 976 192 736
WIRE 320 976 192 976
WIRE 1040 976 1040 560
WIRE 1216 976 1040 976
WIRE 1808 976 1808 800
WIRE 1808 976 1408 976
WIRE 560 1008 560 960
WIRE 1216 1008 560 1008
WIRE 1168 1040 1168 624
WIRE 1216 1040 1168 1040
WIRE -304 1184 -304 1024
WIRE 192 1184 -304 1184
WIRE 240 1248 -272 1248
WIRE 1808 1248 240 1248
WIRE -304 1344 -304 1184
WIRE -272 1344 -272 1248
WIRE 1088 1360 1088 912
WIRE 1216 1360 1088 1360
WIRE 800 1392 800 944
WIRE 1216 1392 800 1392
WIRE 240 1408 240 1248
WIRE 304 1408 240 1408
WIRE 560 1424 432 1424
WIRE 1040 1424 1040 976
WIRE 1216 1424 1040 1424
WIRE 1808 1424 1808 1248
WIRE 1808 1424 1408 1424
WIRE 192 1440 192 1184
WIRE 304 1440 192 1440
WIRE 560 1456 560 1424
WIRE 1216 1456 560 1456
WIRE 1168 1488 1168 1040
WIRE 1216 1488 1168 1488
WIRE -288 1616 -288 1472
WIRE -288 1616 -304 1616
WIRE 192 1616 -288 1616
WIRE 240 1680 -272 1680
WIRE 1808 1680 240 1680
WIRE -304 1776 -304 1616
WIRE -272 1776 -272 1680
WIRE 1088 1824 1088 1360
WIRE 1232 1824 1088 1824
WIRE 240 1840 240 1680
WIRE 288 1840 240 1840
WIRE 560 1856 416 1856
WIRE 800 1856 800 1392
WIRE 1232 1856 800 1856
WIRE 192 1872 192 1616
WIRE 288 1872 192 1872
WIRE 1040 1888 1040 1424
WIRE 1232 1888 1040 1888
WIRE 1808 1888 1808 1680
WIRE 1808 1888 1424 1888
WIRE 560 1920 560 1856
WIRE 1232 1920 560 1920
WIRE 1168 1952 1168 1488
WIRE 1232 1952 1168 1952
WIRE 1040 2032 1040 1888
WIRE 1168 2032 1168 1952
WIRE 1040 2144 1040 2112
WIRE 1168 2144 1168 2112
WIRE -288 2192 -288 1904
WIRE 1808 2192 -288 2192
FLAG -608 368 0
FLAG 1040 2144 0
FLAG 1168 2144 0
FLAG 912 272 0
FLAG 1808 2192 Z
IOPIN 1808 2192 Out
FLAG 1808 560 Q0
IOPIN 1808 560 Out
FLAG 1808 976 Q1
IOPIN 1808 976 Out
FLAG 1808 1424 Q2
IOPIN 1808 1424 Out
FLAG 1808 1888 Q3
IOPIN 1808 1888 Out
SYMBOL D_Flip_Flop_880_440_buffer_Pr_Clr 1296 560 R0
SYMATTR InstName X1
SYMBOL D_Flip_Flop_880_440_buffer_Pr_Clr 1312 976 R0
SYMATTR InstName X2
SYMBOL D_Flip_Flop_880_440_buffer_Pr_Clr 1312 1424 R0
SYMATTR InstName X3
SYMBOL D_Flip_Flop_880_440_buffer_Pr_Clr 1328 1888 R0
SYMATTR InstName X4
SYMBOL AND_model1 -304 496 R90
SYMATTR InstName X5
SYMBOL AND_model1 -304 960 R90
SYMATTR InstName X6
SYMBOL AND_model1 -288 1408 R90
SYMATTR InstName X7
SYMBOL AND_model1 -288 1840 R90
SYMATTR InstName X8
SYMBOL XOR_model1 368 528 R0
SYMATTR InstName X9
SYMBOL XOR_model1 384 960 R0
SYMATTR InstName X10
SYMBOL XOR_model1 368 1424 R0
SYMATTR InstName X11
SYMBOL XOR_model1 352 1856 R0
SYMATTR InstName X12
SYMBOL voltage -464 336 R90
WINDOW 0 -32 56 VBottom 2
WINDOW 3 32 56 VTop 2
WINDOW 123 0 0 Left 0
WINDOW 39 0 0 Left 0
SYMATTR InstName En
SYMATTR Value 1.8
SYMBOL voltage 1088 320 R180
WINDOW 0 24 96 Left 2
WINDOW 3 -453 9 Left 2
WINDOW 123 0 0 Left 0
WINDOW 39 0 0 Left 0
SYMATTR InstName Clock1
SYMATTR Value PULSE(0 1.8 0.1n 0.01n 0.01n 0.25n 0.5n)
SYMBOL voltage 800 320 R180
WINDOW 0 24 96 Left 2
WINDOW 3 24 16 Left 2
WINDOW 123 0 0 Left 0
WINDOW 39 0 0 Left 0
SYMATTR InstName Clock2
SYMATTR Value PULSE(1.8 0 0 0.01n 0.01n 0.25n 0.5n)
SYMBOL voltage 1168 2016 R0
WINDOW 123 0 0 Left 0
WINDOW 39 0 0 Left 0
SYMATTR InstName Preset
SYMATTR Value 0
SYMBOL voltage 1040 2016 R0
WINDOW 123 0 0 Left 0
WINDOW 39 0 0 Left 0
SYMATTR InstName Clr_Bar
SYMATTR Value 1.8
TEXT 120 40 Left 2 !.lib C:\\ENGINEERING\\CommunicationEngineering\\LTSpice_LIBS-20210921T113202Z-001\\LTSpice_LIBS\\tsmc018.lib
TEXT -628 2268 Left 2 !.tran 0 10n 0 0.01n
TEXT -768 2208 Left 2 !.param p=880n l=180n w=440n
